
**** 05/14/18 15:56:03 ******* PSpice Lite (March 2016) ******* ID# 10813 ****

 ** Profile: "SCHEMATIC1-Ampli2"  [ C:\Users\sergi\Documents\GitHub\DAQ\Simulations\Amplifier2\AmplifierHPF-PSpiceFiles\SCHEMATIC1\Am


 ****     CIRCUIT DESCRIPTION


******************************************************************************




** Creating circuit file "Ampli2.cir" 
** WARNING: THIS AUTOMATICALLY GENERATED FILE MAY BE OVERWRITTEN BY SUBSEQUENT SIMULATIONS

*Libraries: 
* Profile Libraries :
* Local Libraries :
* From [PSPICE NETLIST] section of C:\Users\sergi\AppData\Roaming\SPB_Data\cdssetup\OrCAD_PSpice\17.2.0\PSpice.ini file:
.lib "nomd.lib" 

*Analysis directives: 
.DC LIN V_V1 0 5 0.01 
.OPTIONS ADVCONV
.PROBE64 V(alias(*)) I(alias(*)) W(alias(*)) D(alias(*)) NOISE(alias(*)) 
.INC "..\SCHEMATIC1.net" 



**** INCLUDING SCHEMATIC1.net ****
* source AMPLIFIERHPF
R_R2         N14881 GND  50k TC=0,0 
V_V1         N14927 GND 5Vdc
R_R5         GND N15073  47k TC=0,0 
C_C1         VO N15159  100n  TC=0,0 
R_R9         N15167 VAS  10k TC=0,0 
R_R7         N15159 VO  50k TC=0,0 
V_V10         N15443 GND 15Vdc
X_U3B         N15013 N15159 N14923 N15211 VO LM358
R_R6         GND N15159  10k TC=0,0 
R_R1         N14927 N14881  100k TC=0,0 
V_V4         N14877 GND 15Vdc
V_V2         N15297 GND 5Vdc
X_U4A         GND N15167 N15443 N15127 VAS LM358
X_U2B         N14881 N15073 N14877 N15107 N15013 LM358
C_C2         GND N14881  100n  TC=0,0 
V_V8         N15211 GND -15Vdc
V_V9         N15127 GND -15Vdc
R_R8         N15297 N15167  10k TC=0,0 
R_R4         N15073 N15013  100k TC=0,0 
V_V3         N15107 GND -15Vdc
R_R3         VAS N14881  200k TC=0,0 
V_V7         N14923 GND 15Vdc

**** RESUMING Ampli2.cir ****
.END

**** 05/14/18 15:56:03 ******* PSpice Lite (March 2016) ******* ID# 10813 ****

 ** Profile: "SCHEMATIC1-Ampli2"  [ C:\Users\sergi\Documents\GitHub\DAQ\Simulations\Amplifier2\AmplifierHPF-PSpiceFiles\SCHEMATIC1\Am


 ****     Diode MODEL PARAMETERS


******************************************************************************




               X_U3B.x_lm358.dx 
          IS  800.000000E-18 
          RS    1            


               X_U3B.x_lm358.dy 
          IS  800.000000E-18 
          RS    1.000000E-03 
         CJO   10.000000E-12 


               X_U4A.x_lm358.dx 
          IS  800.000000E-18 
          RS    1            


               X_U4A.x_lm358.dy 
          IS  800.000000E-18 
          RS    1.000000E-03 
         CJO   10.000000E-12 


               X_U2B.x_lm358.dx 
          IS  800.000000E-18 
          RS    1            


               X_U2B.x_lm358.dy 
          IS  800.000000E-18 
          RS    1.000000E-03 
         CJO   10.000000E-12 


**** 05/14/18 15:56:03 ******* PSpice Lite (March 2016) ******* ID# 10813 ****

 ** Profile: "SCHEMATIC1-Ampli2"  [ C:\Users\sergi\Documents\GitHub\DAQ\Simulations\Amplifier2\AmplifierHPF-PSpiceFiles\SCHEMATIC1\Am


 ****     BJT MODEL PARAMETERS


******************************************************************************




               X_U3B.x_lm358.qx 
               PNP             
       LEVEL    1            
          IS  800.000000E-18 
          BF  166.7          
          NF    1            
          BR    1            
          NR    1            
         ISS    0            
          RE    0            
          RC    0            
         CJE    0            
         VJE     .75         
         CJC    0            
         VJC     .75         
         MJC     .33         
        XCJC    1            
         CJS    0            
         VJS     .75         
          KF    0            
          AF    1            
          CN    2.2          
           D     .52         


               X_U4A.x_lm358.qx 
               PNP             
       LEVEL    1            
          IS  800.000000E-18 
          BF  166.7          
          NF    1            
          BR    1            
          NR    1            
         ISS    0            
          RE    0            
          RC    0            
         CJE    0            
         VJE     .75         
         CJC    0            
         VJC     .75         
         MJC     .33         
        XCJC    1            
         CJS    0            
         VJS     .75         
          KF    0            
          AF    1            
          CN    2.2          
           D     .52         


               X_U2B.x_lm358.qx 
               PNP             
       LEVEL    1            
          IS  800.000000E-18 
          BF  166.7          
          NF    1            
          BR    1            
          NR    1            
         ISS    0            
          RE    0            
          RC    0            
         CJE    0            
         VJE     .75         
         CJC    0            
         VJC     .75         
         MJC     .33         
        XCJC    1            
         CJS    0            
         VJS     .75         
          KF    0            
          AF    1            
          CN    2.2          
           D     .52         


**** 05/14/18 15:56:03 ******* PSpice Lite (March 2016) ******* ID# 10813 ****

 ** Profile: "SCHEMATIC1-Ampli2"  [ C:\Users\sergi\Documents\GitHub\DAQ\Simulations\Amplifier2\AmplifierHPF-PSpiceFiles\SCHEMATIC1\Am


 ****     Current Controlled Switch MODEL PARAMETERS


******************************************************************************




               X_U3B.x_lm358.sw2 
         RON    1            
        ROFF   10.000000E+06 
         ION    0            
        IOFF   -1.000000E-06 


               X_U3B.x_lm358.sw1 
         RON    1            
        ROFF   10.000000E+06 
         ION   -1.000000E-06 
        IOFF    0            


               X_U3B.x_lm358.sw3 
         RON    1            
        ROFF   10.000000E+06 
         ION   -1.000000E-06 
        IOFF    0            


               X_U3B.x_lm358.sw4 
         RON    1            
        ROFF   10.000000E+06 
         ION    0            
        IOFF   -1.000000E-06 


               X_U4A.x_lm358.sw2 
         RON    1            
        ROFF   10.000000E+06 
         ION    0            
        IOFF   -1.000000E-06 


               X_U4A.x_lm358.sw1 
         RON    1            
        ROFF   10.000000E+06 
         ION   -1.000000E-06 
        IOFF    0            


               X_U4A.x_lm358.sw3 
         RON    1            
        ROFF   10.000000E+06 
         ION   -1.000000E-06 
        IOFF    0            


               X_U4A.x_lm358.sw4 
         RON    1            
        ROFF   10.000000E+06 
         ION    0            
        IOFF   -1.000000E-06 


               X_U2B.x_lm358.sw2 
         RON    1            
        ROFF   10.000000E+06 
         ION    0            
        IOFF   -1.000000E-06 


               X_U2B.x_lm358.sw1 
         RON    1            
        ROFF   10.000000E+06 
         ION   -1.000000E-06 
        IOFF    0            


               X_U2B.x_lm358.sw3 
         RON    1            
        ROFF   10.000000E+06 
         ION   -1.000000E-06 
        IOFF    0            


               X_U2B.x_lm358.sw4 
         RON    1            
        ROFF   10.000000E+06 
         ION    0            
        IOFF   -1.000000E-06 



          JOB CONCLUDED

**** 05/14/18 15:56:03 ******* PSpice Lite (March 2016) ******* ID# 10813 ****

 ** Profile: "SCHEMATIC1-Ampli2"  [ C:\Users\sergi\Documents\GitHub\DAQ\Simulations\Amplifier2\AmplifierHPF-PSpiceFiles\SCHEMATIC1\Am


 ****     JOB STATISTICS SUMMARY


******************************************************************************



  Total job time (using Solver 1)   =         .11
