
**** 04/28/18 15:48:00 ******* PSpice Lite (March 2016) ******* ID# 10813 ****

 ** Profile: "SCHEMATIC1-ReductorSim"  [ C:\Users\sergi\Documents\GitHub\DAQ\Simulations\Reductor\Reductor-PSpiceFiles\SCHEMATIC1\Red


 ****     CIRCUIT DESCRIPTION


******************************************************************************




** Creating circuit file "ReductorSim.cir" 
** WARNING: THIS AUTOMATICALLY GENERATED FILE MAY BE OVERWRITTEN BY SUBSEQUENT SIMULATIONS

*Libraries: 
* Profile Libraries :
* Local Libraries :
* From [PSPICE NETLIST] section of C:\Users\sergi\AppData\Roaming\SPB_Data\cdssetup\OrCAD_PSpice\17.2.0\PSpice.ini file:
.lib "nomd.lib" 

*Analysis directives: 
.DC LIN V_V9 -15 15 0.01 
.OPTIONS ADVCONV
.PROBE64 V(alias(*)) I(alias(*)) W(alias(*)) D(alias(*)) NOISE(alias(*)) 
.INC "..\SCHEMATIC1.net" 



**** INCLUDING SCHEMATIC1.net ****
* source REDUCTOR
V_V4         N14447 GND 15Vdc
V_V3         N14515 GND -15Vdc
X_U2B         N15432 N14507 N14447 N14515 VO LM358
R_R4         N14507 VO  100k TC=0,0 
R_R5         GND N14507  47k TC=0,0 
X_U3B         N14974 N14956 N14931 N14937 N14956 LM358
X_U4B         N15065 N15321 N15265 N15283 N15321 LM358
R_R6         N15065 N14956  68k TC=0,0 
R_R7         GND N15065  68k TC=0,0 
V_V5         N14931 GND 15Vdc
V_V6         N14937 GND -15Vdc
V_V7         N15283 GND 0Vdc
V_V8         N15265 GND 0Vdc
V_V9         N14974 GND 5Vdc
V_V1         N15417 GND 5Vdc
R_R8         N15321 N15432  100k TC=0,0 
R_R9         N15432 GND  51k TC=0,0 
R_R10         N15417 N15432  200k TC=0,0 

**** RESUMING ReductorSim.cir ****
.END

**** 04/28/18 15:48:00 ******* PSpice Lite (March 2016) ******* ID# 10813 ****

 ** Profile: "SCHEMATIC1-ReductorSim"  [ C:\Users\sergi\Documents\GitHub\DAQ\Simulations\Reductor\Reductor-PSpiceFiles\SCHEMATIC1\Red


 ****     Diode MODEL PARAMETERS


******************************************************************************




               X_U2B.x_lm358.dx 
          IS  800.000000E-18 
          RS    1            


               X_U2B.x_lm358.dy 
          IS  800.000000E-18 
          RS    1.000000E-03 
         CJO   10.000000E-12 


               X_U3B.x_lm358.dx 
          IS  800.000000E-18 
          RS    1            


               X_U3B.x_lm358.dy 
          IS  800.000000E-18 
          RS    1.000000E-03 
         CJO   10.000000E-12 


               X_U4B.x_lm358.dx 
          IS  800.000000E-18 
          RS    1            


               X_U4B.x_lm358.dy 
          IS  800.000000E-18 
          RS    1.000000E-03 
         CJO   10.000000E-12 


**** 04/28/18 15:48:00 ******* PSpice Lite (March 2016) ******* ID# 10813 ****

 ** Profile: "SCHEMATIC1-ReductorSim"  [ C:\Users\sergi\Documents\GitHub\DAQ\Simulations\Reductor\Reductor-PSpiceFiles\SCHEMATIC1\Red


 ****     BJT MODEL PARAMETERS


******************************************************************************




               X_U2B.x_lm358.qx 
               PNP             
       LEVEL    1            
          IS  800.000000E-18 
          BF  166.7          
          NF    1            
          BR    1            
          NR    1            
         ISS    0            
          RE    0            
          RC    0            
         CJE    0            
         VJE     .75         
         CJC    0            
         VJC     .75         
         MJC     .33         
        XCJC    1            
         CJS    0            
         VJS     .75         
          KF    0            
          AF    1            
          CN    2.2          
           D     .52         


               X_U3B.x_lm358.qx 
               PNP             
       LEVEL    1            
          IS  800.000000E-18 
          BF  166.7          
          NF    1            
          BR    1            
          NR    1            
         ISS    0            
          RE    0            
          RC    0            
         CJE    0            
         VJE     .75         
         CJC    0            
         VJC     .75         
         MJC     .33         
        XCJC    1            
         CJS    0            
         VJS     .75         
          KF    0            
          AF    1            
          CN    2.2          
           D     .52         


               X_U4B.x_lm358.qx 
               PNP             
       LEVEL    1            
          IS  800.000000E-18 
          BF  166.7          
          NF    1            
          BR    1            
          NR    1            
         ISS    0            
          RE    0            
          RC    0            
         CJE    0            
         VJE     .75         
         CJC    0            
         VJC     .75         
         MJC     .33         
        XCJC    1            
         CJS    0            
         VJS     .75         
          KF    0            
          AF    1            
          CN    2.2          
           D     .52         


**** 04/28/18 15:48:00 ******* PSpice Lite (March 2016) ******* ID# 10813 ****

 ** Profile: "SCHEMATIC1-ReductorSim"  [ C:\Users\sergi\Documents\GitHub\DAQ\Simulations\Reductor\Reductor-PSpiceFiles\SCHEMATIC1\Red


 ****     Current Controlled Switch MODEL PARAMETERS


******************************************************************************




               X_U2B.x_lm358.sw2 
         RON    1            
        ROFF   10.000000E+06 
         ION    0            
        IOFF   -1.000000E-06 


               X_U2B.x_lm358.sw1 
         RON    1            
        ROFF   10.000000E+06 
         ION   -1.000000E-06 
        IOFF    0            


               X_U2B.x_lm358.sw3 
         RON    1            
        ROFF   10.000000E+06 
         ION   -1.000000E-06 
        IOFF    0            


               X_U2B.x_lm358.sw4 
         RON    1            
        ROFF   10.000000E+06 
         ION    0            
        IOFF   -1.000000E-06 


               X_U3B.x_lm358.sw2 
         RON    1            
        ROFF   10.000000E+06 
         ION    0            
        IOFF   -1.000000E-06 


               X_U3B.x_lm358.sw1 
         RON    1            
        ROFF   10.000000E+06 
         ION   -1.000000E-06 
        IOFF    0            


               X_U3B.x_lm358.sw3 
         RON    1            
        ROFF   10.000000E+06 
         ION   -1.000000E-06 
        IOFF    0            


               X_U3B.x_lm358.sw4 
         RON    1            
        ROFF   10.000000E+06 
         ION    0            
        IOFF   -1.000000E-06 


               X_U4B.x_lm358.sw2 
         RON    1            
        ROFF   10.000000E+06 
         ION    0            
        IOFF   -1.000000E-06 


               X_U4B.x_lm358.sw1 
         RON    1            
        ROFF   10.000000E+06 
         ION   -1.000000E-06 
        IOFF    0            


               X_U4B.x_lm358.sw3 
         RON    1            
        ROFF   10.000000E+06 
         ION   -1.000000E-06 
        IOFF    0            


               X_U4B.x_lm358.sw4 
         RON    1            
        ROFF   10.000000E+06 
         ION    0            
        IOFF   -1.000000E-06 


Starting pseudo-transient algorithm.

WARNING(ORPSIM-16534): Using high values of ITL4 for Speed Level > 0 may increase total simulation job time.

ERROR -- Convergence problem in DC sweep


  Last node voltages tried were:

 NODE   VOLTAGE     NODE   VOLTAGE     NODE   VOLTAGE     NODE   VOLTAGE


(   VO)   -8.3270  (  GND)   -6.6462  (N14447)   -1.9422 (N14507)   -7.1827     

(N14515)  -11.3500 (N14931)   -1.9422 (N14937)  -11.3500 (N14956)  -11.8410     

(N14974)  -11.3500 (N15065)   -7.5296 (N15265)   -6.6462 (N15283)   -6.6462     

(N15321)   -6.5680 (N15417)   -5.0782 (N15432)   -6.3971                        

(X_U2B.x_lm358.6)     .0038           (X_U2B.x_lm358.7)   -8.3278               

(X_U2B.x_lm358.8)   -8.3278           (X_U2B.x_lm358.9)    0.0000               

(X_U2B.x_lm358.a) 4.583E-06           (X_U2B.x_lm358.b)  -11.3500               

(X_U3B.x_lm358.6)     .0201           (X_U3B.x_lm358.7)  -11.9940               

(X_U3B.x_lm358.8)  -11.9940           (X_U3B.x_lm358.9)    0.0000               

(X_U3B.x_lm358.a) 957.0E-06           (X_U3B.x_lm358.b)  -11.3490               

(X_U4B.x_lm358.6)     .0027           (X_U4B.x_lm358.7)   -6.5680               

(X_U4B.x_lm358.8)   -6.5680           (X_U4B.x_lm358.9)    0.0000               

(X_U4B.x_lm358.a)   -3.3332           (X_U4B.x_lm358.b)   -3.3125               

(X_U2B.x_lm358.10)   -6.5897          (X_U2B.x_lm358.11)  -11.3230              

(X_U2B.x_lm358.12)  -11.3500          (X_U2B.x_lm358.13)   -6.5990              

(X_U2B.x_lm358.14)   -6.5897          (X_U2B.x_lm358.53)   -2.4126              

(X_U2B.x_lm358.54)  -11.0920          (X_U2B.x_lm358.90)    -.0048              

(X_U2B.x_lm358.91)   12.5440          (X_U2B.x_lm358.92)  -12.5440              

(X_U2B.x_lm358.99)   -2.0843          (X_U3B.x_lm358.10)  -11.2440              

(X_U3B.x_lm358.11)  -11.3240          (X_U3B.x_lm358.12)  -11.3500              

(X_U3B.x_lm358.13)  -11.2540          (X_U3B.x_lm358.14)  -11.2440              

(X_U3B.x_lm358.53)   -2.4126          (X_U3B.x_lm358.54)  -11.0920              

(X_U3B.x_lm358.90)    -.9572          (X_U3B.x_lm358.91)   12.5440              

(X_U3B.x_lm358.92)  -12.5440          (X_U3B.x_lm358.99)   -2.0843              

(X_U4B.x_lm358.10)   -6.8748          (X_U4B.x_lm358.11)   -6.6463              

(X_U4B.x_lm358.12)   -6.8866          (X_U4B.x_lm358.13)   -6.8748              

(X_U4B.x_lm358.14)   -6.8842          (X_U4B.x_lm358.53)   -7.1166              

(X_U4B.x_lm358.54)   -6.3884          (X_U4B.x_lm358.90)-156.8E-06              

(X_U4B.x_lm358.91)   12.5440          (X_U4B.x_lm358.92)  -12.5440              

(X_U4B.x_lm358.99)   -2.0843          


  These voltages failed to converge:

    V(N14447)                 =    -1.963V  \    -1.942V
    V(GND)                    =    -6.667V  \    -6.646V
    V(N14515)                 =    -11.37V  \    -11.35V
    V(N14507)                 =    -7.198V  \    -7.183V
    V(N15065)                 =    -7.551V  \    -7.530V
    V(N14956)                 =    -11.86V  \    -11.84V
    V(N14931)                 =    -1.963V  \    -1.942V
    V(N14937)                 =    -11.37V  \    -11.35V
    V(N15283)                 =    -6.667V  \    -6.646V
    V(N15265)                 =    -6.667V  \    -6.646V
    V(N14974)                 =    -11.37V  \    -11.35V
    V(N15417)                 =    -5.099V  \    -5.078V
    V(N15432)                 =    -6.412V  \    -6.397V
    V(X_U2B.x_lm358.11)       =    -11.35V  \    -11.32V
    V(X_U2B.x_lm358.12)       =    -11.37V  \    -11.35V
    V(X_U2B.x_lm358.6)        =   313.86uV  \    3.771mV
    V(X_U2B.x_lm358.53)       =    -2.433V  \    -2.413V
    V(X_U2B.x_lm358.54)       =    -11.11V  \    -11.09V
    V(X_U2B.x_lm358.90)       =   -3.553mV  \   -4.777mV
    V(X_U2B.x_lm358.99)       =    -6.667V  \    -2.084V
    V(X_U2B.x_lm358.a)        =    3.357uV  \    4.583uV
    V(X_U2B.x_lm358.b)        =    -11.37V  \    -11.35V
    V(X_U2B.x_lm358.10)       =    -6.607V  \    -6.590V
    V(X_U2B.x_lm358.13)       =    -6.616V  \    -6.599V
    V(X_U2B.x_lm358.14)       =    -6.607V  \    -6.590V
    V(X_U3B.x_lm358.11)       =    -11.35V  \    -11.32V
    V(X_U3B.x_lm358.12)       =    -11.37V  \    -11.35V
    V(X_U3B.x_lm358.6)        =    13.97mV  \    20.09mV
    V(X_U3B.x_lm358.53)       =    -2.433V  \    -2.413V
    V(X_U3B.x_lm358.54)       =    -11.11V  \    -11.09V
    V(X_U3B.x_lm358.90)       =  -881.54mV  \  -957.15mV
    V(X_U3B.x_lm358.99)       =    -6.667V  \    -2.084V
    V(X_U3B.x_lm358.a)        =   881.34uV  \   956.96uV
    V(X_U3B.x_lm358.b)        =    -11.37V  \    -11.35V
    V(X_U3B.x_lm358.10)       =    -11.27V  \    -11.24V
    V(X_U3B.x_lm358.13)       =    -11.27V  \    -11.25V
    V(X_U3B.x_lm358.14)       =    -11.27V  \    -11.24V
    V(X_U4B.x_lm358.11)       =    -6.667V  \    -6.646V
    V(X_U4B.x_lm358.12)       =    -6.908V  \    -6.887V
    V(X_U4B.x_lm358.6)        =   -28.44uV  \    2.689mV
    V(X_U4B.x_lm358.53)       =    -7.137V  \    -7.117V
    V(X_U4B.x_lm358.54)       =    -6.409V  \    -6.388V
    V(X_U4B.x_lm358.90)       =   189.31uV  \  -156.76uV
    V(X_U4B.x_lm358.99)       =    -6.667V  \    -2.084V
    V(X_U4B.x_lm358.a)        =    -92.00V  \    -3.333V
    V(X_U4B.x_lm358.b)        =     85.34V  \    -3.313V
    V(X_U4B.x_lm358.10)       =    -6.897V  \    -6.875V
    V(X_U4B.x_lm358.13)       =    -6.897V  \    -6.875V
    V(X_U4B.x_lm358.14)       =    -6.905V  \    -6.884V

  These supply currents failed to converge:

    I(X_U2B.x_lm358.egnd)     =     9.80uA  \    13.19uA
    I(X_U3B.x_lm358.egnd)     =    2.809mA  \    3.050mA
    I(X_U4B.x_lm358.egnd)     =   -14.82uA  \   -14.18uA
    I(V_V4)                   =   -1.040mA  \   -1.042mA
    I(V_V6)                   =  -824.00uA  \  -989.09uA
    I(V_V7)                   =   919.11uA  \    1.006mA
    I(V_V8)                   =   966.36uA  \    1.048mA
    I(V_V1)                   =   -6.569uA  \   -6.577uA
    I(X_U2B.x_lm358.vb)       =    3.139nA  \    37.71nA
    I(X_U2B.x_lm358.vc)       =    5.899pA  \    1.702uA
    I(X_U2B.x_lm358.ve)       =    4.304pA  \   -2.087uA
    I(X_U2B.x_lm358.vlim)     =   -11.33uA  \   -15.23uA
    I(X_U3B.x_lm358.vb)       =   139.65nA  \   200.85nA
    I(X_U3B.x_lm358.vc)       =    9.427pA  \    26.36nA
    I(X_U3B.x_lm358.ve)       =   -2.747mA  \   -2.988mA
    I(X_U3B.x_lm358.vlim)     =   -2.811mA  \   -3.052mA
    I(X_U4B.x_lm358.vb)       =  -284.36pA  \    26.89nA
    I(X_U4B.x_lm358.vc)       =   -2.188uA  \   -1.264uA
    I(X_U4B.x_lm358.ve)       =  -517.68fA  \   -54.61nA
    I(X_U4B.x_lm358.vlim)     =   603.65nA  \  -499.87nA

  These devices failed to converge:
    X_U3B.x_lm358.de X_U4B.x_lm358.dc X_U2B.x_lm358.fb X_U3B.x_lm358.fb 
    X_U4B.x_lm358.fb X_U2B.x_lm358.q1 X_U3B.x_lm358.q1 

**** Interrupt ****
