
**** 06/12/18 12:58:03 ******* PSpice Lite (March 2016) ******* ID# 10813 ****

 ** Profile: "SCHEMATIC1-ReductorSim"  [ c:\users\sergi\documents\github\daq\simulations\reductor\reductor-pspicefiles\schematic1\red


 ****     CIRCUIT DESCRIPTION


******************************************************************************




** Creating circuit file "ReductorSim.cir" 
** WARNING: THIS AUTOMATICALLY GENERATED FILE MAY BE OVERWRITTEN BY SUBSEQUENT SIMULATIONS

*Libraries: 
* Profile Libraries :
* Local Libraries :
* From [PSPICE NETLIST] section of C:\Users\sergi\AppData\Roaming\SPB_Data\cdssetup\OrCAD_PSpice\17.2.0\PSpice.ini file:
.lib "nomd.lib" 

*Analysis directives: 
.DC LIN V_V1 -15 15 0.01 
.OPTIONS ADVCONV
.PROBE64 V(alias(*)) I(alias(*)) W(alias(*)) D(alias(*)) NOISE(alias(*)) 
.INC "..\SCHEMATIC1.net" 



**** INCLUDING SCHEMATIC1.net ****
* source REDUCTOR
V_V4         N14447 0 15Vdc
V_V3         N14515 0 -15Vdc
X_U2B         N15432 N14507 N14447 N14515 VO LM358
R_R4         N14507 VO  100k TC=0,0 
R_R5         0 N14507  47k TC=0,0 
X_U3B         N14974 N14956 N14931 N146973 N14956 LM358
X_U4B         N15065 N15321 N15265 N15283 N15321 LM358
R_R6         N15065 N14956  68k TC=0,0 
R_R7         0 N15065  18k TC=0,0 
V_V5         N14931 0 15Vdc
V_V6         N146973 0 -15Vdc
V_V7         N15283 0 -15Vdc
V_V8         N15265 0 15Vdc
V_V1         N14974 0 5Vdc
V_V9         N16502 0 5Vdc
R_R8         N15321 N15432  100k TC=0,0 
R_R9         N15432 0  51k TC=0,0 
R_R10         N16502 N15432  200k TC=0,0 

**** RESUMING ReductorSim.cir ****
.END

**** 06/12/18 12:58:03 ******* PSpice Lite (March 2016) ******* ID# 10813 ****

 ** Profile: "SCHEMATIC1-ReductorSim"  [ c:\users\sergi\documents\github\daq\simulations\reductor\reductor-pspicefiles\schematic1\red


 ****     Diode MODEL PARAMETERS


******************************************************************************




               X_U2B.x_lm358.dx 
          IS  800.000000E-18 
          RS    1            


               X_U2B.x_lm358.dy 
          IS  800.000000E-18 
          RS    1.000000E-03 
         CJO   10.000000E-12 


               X_U3B.x_lm358.dx 
          IS  800.000000E-18 
          RS    1            


               X_U3B.x_lm358.dy 
          IS  800.000000E-18 
          RS    1.000000E-03 
         CJO   10.000000E-12 


               X_U4B.x_lm358.dx 
          IS  800.000000E-18 
          RS    1            


               X_U4B.x_lm358.dy 
          IS  800.000000E-18 
          RS    1.000000E-03 
         CJO   10.000000E-12 


**** 06/12/18 12:58:03 ******* PSpice Lite (March 2016) ******* ID# 10813 ****

 ** Profile: "SCHEMATIC1-ReductorSim"  [ c:\users\sergi\documents\github\daq\simulations\reductor\reductor-pspicefiles\schematic1\red


 ****     BJT MODEL PARAMETERS


******************************************************************************




               X_U2B.x_lm358.qx 
               PNP             
       LEVEL    1            
          IS  800.000000E-18 
          BF  166.7          
          NF    1            
          BR    1            
          NR    1            
         ISS    0            
          RE    0            
          RC    0            
         CJE    0            
         VJE     .75         
         CJC    0            
         VJC     .75         
         MJC     .33         
        XCJC    1            
         CJS    0            
         VJS     .75         
          KF    0            
          AF    1            
          CN    2.2          
           D     .52         


               X_U3B.x_lm358.qx 
               PNP             
       LEVEL    1            
          IS  800.000000E-18 
          BF  166.7          
          NF    1            
          BR    1            
          NR    1            
         ISS    0            
          RE    0            
          RC    0            
         CJE    0            
         VJE     .75         
         CJC    0            
         VJC     .75         
         MJC     .33         
        XCJC    1            
         CJS    0            
         VJS     .75         
          KF    0            
          AF    1            
          CN    2.2          
           D     .52         


               X_U4B.x_lm358.qx 
               PNP             
       LEVEL    1            
          IS  800.000000E-18 
          BF  166.7          
          NF    1            
          BR    1            
          NR    1            
         ISS    0            
          RE    0            
          RC    0            
         CJE    0            
         VJE     .75         
         CJC    0            
         VJC     .75         
         MJC     .33         
        XCJC    1            
         CJS    0            
         VJS     .75         
          KF    0            
          AF    1            
          CN    2.2          
           D     .52         


**** 06/12/18 12:58:03 ******* PSpice Lite (March 2016) ******* ID# 10813 ****

 ** Profile: "SCHEMATIC1-ReductorSim"  [ c:\users\sergi\documents\github\daq\simulations\reductor\reductor-pspicefiles\schematic1\red


 ****     Current Controlled Switch MODEL PARAMETERS


******************************************************************************




               X_U2B.x_lm358.sw2 
         RON    1            
        ROFF   10.000000E+06 
         ION    0            
        IOFF   -1.000000E-06 


               X_U2B.x_lm358.sw1 
         RON    1            
        ROFF   10.000000E+06 
         ION   -1.000000E-06 
        IOFF    0            


               X_U2B.x_lm358.sw3 
         RON    1            
        ROFF   10.000000E+06 
         ION   -1.000000E-06 
        IOFF    0            


               X_U2B.x_lm358.sw4 
         RON    1            
        ROFF   10.000000E+06 
         ION    0            
        IOFF   -1.000000E-06 


               X_U3B.x_lm358.sw2 
         RON    1            
        ROFF   10.000000E+06 
         ION    0            
        IOFF   -1.000000E-06 


               X_U3B.x_lm358.sw1 
         RON    1            
        ROFF   10.000000E+06 
         ION   -1.000000E-06 
        IOFF    0            


               X_U3B.x_lm358.sw3 
         RON    1            
        ROFF   10.000000E+06 
         ION   -1.000000E-06 
        IOFF    0            


               X_U3B.x_lm358.sw4 
         RON    1            
        ROFF   10.000000E+06 
         ION    0            
        IOFF   -1.000000E-06 


               X_U4B.x_lm358.sw2 
         RON    1            
        ROFF   10.000000E+06 
         ION    0            
        IOFF   -1.000000E-06 


               X_U4B.x_lm358.sw1 
         RON    1            
        ROFF   10.000000E+06 
         ION   -1.000000E-06 
        IOFF    0            


               X_U4B.x_lm358.sw3 
         RON    1            
        ROFF   10.000000E+06 
         ION   -1.000000E-06 
        IOFF    0            


               X_U4B.x_lm358.sw4 
         RON    1            
        ROFF   10.000000E+06 
         ION    0            
        IOFF   -1.000000E-06 



          JOB CONCLUDED

**** 06/12/18 12:58:03 ******* PSpice Lite (March 2016) ******* ID# 10813 ****

 ** Profile: "SCHEMATIC1-ReductorSim"  [ c:\users\sergi\documents\github\daq\simulations\reductor\reductor-pspicefiles\schematic1\red


 ****     JOB STATISTICS SUMMARY


******************************************************************************



  Total job time (using Solver 1)   =         .25
