
**** 04/05/18 19:15:03 ******* PSpice Lite (March 2016) ******* ID# 10813 ****

 ** Profile: "SCHEMATIC1-Test"  [ C:\Users\sergi\Documents\GitHub\DAQ\Simulations\Amplifier\Amplifier-PSpiceFiles\SCHEMATIC1\Test.sim


 ****     CIRCUIT DESCRIPTION


******************************************************************************




** Creating circuit file "Test.cir" 
** WARNING: THIS AUTOMATICALLY GENERATED FILE MAY BE OVERWRITTEN BY SUBSEQUENT SIMULATIONS

*Libraries: 
* Profile Libraries :
* Local Libraries :
* From [PSPICE NETLIST] section of C:\Users\sergi\AppData\Roaming\SPB_Data\cdssetup\OrCAD_PSpice\17.2.0\PSpice.ini file:
.lib "nomd.lib" 

*Analysis directives: 
.DC LIN V_V1 -2,5 2,5 0,01 
--------------------$
ERROR(ORPSIM-16063): Must be 'I' or 'V'
.OPTIONS ADVCONV
.PROBE64 V(alias(*)) I(alias(*)) W(alias(*)) D(alias(*)) NOISE(alias(*)) 
.INC "..\SCHEMATIC1.net" 



**** INCLUDING SCHEMATIC1.net ****
* source AMPLIFIER
X_U2B         N01850 N01868 N01772 N01912 VO LM358
R_R4         N01868 VO  50k TC=0,0 
V_V3         N01912 GND -15Vdc
V_V1         N01850 GND 5Vdc
V_V4         N01772 GND 15Vdc
R_R5         GND N01868  10k TC=0,0 

**** RESUMING Test.cir ****
.END
